Circuit: * H:\Dropbox\2270ecen\5lab\RxFilter.asc

Direct Newton iteration failed to find .op point.  (Use ".option noopiter" to skip.)
Starting Gmin stepping
Gmin = 10
Gmin = 1.07374
Gmin = 0.115292
Gmin = 0.0123794
Gmin = 0.00132923
vernier = 0.5
Gmin = 0.000223007
vernier = 0.666667
Gmin = 5.72562e-005
vernier = 0.888888
vernier = 1
Gmin = 7.53781e-006
Gmin = 8.09366e-007
vernier = 0.5
vernier = 0.25
vernier = 0.125
vernier = 0.0625
vernier = 0.03125
vernier = 0.015625
vernier = 0.0078125
vernier = 0.00390625
vernier = 0.00195313
vernier = 0.000976563
Gmin = 1.01171e-006
vernier = 0.000488281
Gmin = 0
Gmin stepping failed

Starting source stepping with srcstepmethod=0
Source Step = 3.0303%
vernier = 0.25
Source Step = 0.0177557%
Starting source stepping with srcstepmethod=1
Source Step = 3.0303%
vernier = 0.25
Source stepping failed

Pseudo Transient succeeded in finding the operating point.

Date: Fri Nov 22 15:16:59 2013
Total elapsed time: 0.351 seconds.

tnom = 27
temp = 27
method = trap
totiter = 27529
traniter = 0
tranpoints = 0
accept = 0
rejected = 3687
matrix size = 14
fillins = 1
solver = Normal
Matrix Compiler1: 716 bytes object code size  0.6/0.4/[0.4]
Matrix Compiler2: off  [0.3]/0.5/0.7


