Circuit: * H:\Dropbox\2270ecen\5lab\Transmitter.asc

Direct Newton iteration for .op point succeeded.

Date: Thu Nov 21 10:38:28 2013
Total elapsed time: 0.079 seconds.

tnom = 27
temp = 27
method = modified trap
totiter = 6176
traniter = 6168
tranpoints = 1865
accept = 1674
rejected = 191
matrix size = 14
fillins = 0
solver = Normal
Matrix Compiler1: 384 bytes object code size  0.6/0.4/[0.3]
Matrix Compiler2: 776 bytes object code size  0.4/0.4/[0.4]


