Circuit: * Z:\home\patrick\Dropbox\2270ecen\2lab\b\Draft1.asc

Direct Newton iteration for .op point succeeded.

Date: Tue Sep 24 19:20:24 2013
Total elapsed time: 0.052 seconds.

tnom = 27
temp = 27
method = modified trap
totiter = 2109
traniter = 2096
tranpoints = 1049
accept = 1049
rejected = 0
matrix size = 11
fillins = 0
solver = Normal
Matrix Compiler1: 788 bytes object code size  1.4/1.0/[0.9]
Matrix Compiler2: 929 bytes object code size  0.9/1.2/[0.8]


