Circuit: * \\eces172.colorado.edu\paha5124\win7folders\Desktop\ECEN2270\Draft2.asc


Date: Thu Sep 05 11:15:06 2013
Total elapsed time: 1.879 seconds.

tnom = 27
temp = 27
method = trap
totiter = 0
traniter = 0
tranpoints = 0
accept = 0
rejected = 0
matrix size = 4
fillins = 0
solver = Normal

