Circuit: * H:\Dropbox\2270ecen\project\IR_Rx.asc

WARNING: Less than two connections to node FAR_RIGHT_SIGNAL.  This node is used by V§IR_1.
WARNING: Less than two connections to node RIGHT_SIGNAL.  This node is used by V§IR_2.
WARNING: Less than two connections to node LEFT_SIGNAL.  This node is used by V§IR_6.
WARNING: Less than two connections to node FAR_LEFT_SIGNAL.  This node is used by V§IR_7.
WARNING: Less than two connections to node CENTER_SIGNAL.  This node is used by A1.
Direct Newton iteration for .op point succeeded.

Date: Thu Dec 12 09:14:15 2013
Total elapsed time: 0.063 seconds.

tnom = 27
temp = 27
method = modified trap
totiter = 2092
traniter = 2088
tranpoints = 1045
accept = 1045
rejected = 0
matrix size = 17
fillins = 0
solver = Normal
Matrix Compiler1: 300 bytes object code size  0.6/0.4/[0.3]
Matrix Compiler2: 723 bytes object code size  0.5/0.6/[0.4]


