Circuit: * Z:\home\patrick\Dropbox\2270ecen\3lab\b\DC_Motor_Driver_t.asc

Direct Newton iteration for .op point succeeded.

Date: Sun Oct 06 12:31:07 2013
Total elapsed time: 0.050 seconds.

tnom = 27
temp = 27
method = modified trap
totiter = 2107
traniter = 2088
tranpoints = 1045
accept = 1045
rejected = 0
matrix size = 16
fillins = 10
solver = Normal
Matrix Compiler1: 2.09 KB object code size  1.6/0.8/[0.6]
Matrix Compiler2: 1.65 KB object code size  0.9/0.7/[0.6]


