Circuit: * Z:\home\patrick\Dropbox\2270ecen\3lab\b\Speed_Control_Demo.asc

WARNING: Node X4:N002 is floating.

WARNING: Less than two connections to node CC.  This node is used by V§CC_V.
Direct Newton iteration failed to find .op point.  (Use ".option noopiter" to skip.)
Gmin stepping method for .op point skipped.
Starting source stepping with srcstepmethod=0
Source Step = 3.0303%
vernier = 0.25
Source Step = 0.0177557%
Starting source stepping with srcstepmethod=1
Source Step = 3.0303%
vernier = 0.25
Source stepping failed

Pseudo Transient succeeded in finding the operating point.

Date: Thu Oct 24 10:00:49 2013
Total elapsed time: 46.404 seconds.

tnom = 27
temp = 27
method = trap
totiter = 1832511
traniter = 58741
tranpoints = 29163
accept = 23980
rejected = 310184
matrix size = 62
fillins = 45
solver = Normal
Matrix Compiler1: 5.45 KB object code size  2.9/2.9/[0.6]
Matrix Compiler2: 5.66 KB object code size  1.2/1.8/[0.9]


