Circuit: * Z:\home\patrick\Dropbox\2270ecen\3lab\b_other_group\Speed_control_overall.asc

WARNING: Node X4:N002 is floating.
WARNING: Node X5:N002 is floating.

Direct Newton iteration failed to find .op point.  (Use ".option noopiter" to skip.)
Gmin stepping method for .op point skipped.
Starting source stepping with srcstepmethod=0
Source Step = 3.0303%
vernier = 0.25
Source Step = 0.378788%
Starting source stepping with srcstepmethod=1
Source Step = 3.0303%
vernier = 0.25
Source stepping failed

Pseudo Transient succeeded in finding the operating point.

Date: Tue Oct 29 15:54:43 2013
Total elapsed time: 301.269 seconds.

tnom = 27
temp = 27
method = modified trap
totiter = 6145003
traniter = 778762
tranpoints = 208595
accept = 162167
rejected = 819685
matrix size = 120
fillins = 97
solver = Normal
Thread vector: 38.8/24.5[3] 11.1/5.9[3] 7.1/4.3[3] 1.4/26.4[1]  2592/500
Matrix Compiler1: 11.1 KB object code size  10.2/4.2/[1.9]
Matrix Compiler2: 11.4 KB object code size  3.1/4.6/[1.6]


