Circuit: * Z:\home\patrick\Dropbox\2270ecen\3lab\a\DC_Motor_Driver_t.asc

WARNING: Node X2:N002 is floating.

WARNING: Less than two connections to node ENC.  This node is used by R:X2:1.
Direct Newton iteration for .op point succeeded.

Date: Sun Oct 13 20:48:47 2013
Total elapsed time: 0.166 seconds.

tnom = 27
temp = 27
method = modified trap
totiter = 2104
traniter = 2090
tranpoints = 1046
accept = 1046
rejected = 0
matrix size = 24
fillins = 13
solver = Normal
Matrix Compiler1: 2.38 KB object code size  1.5/0.7/[0.4]
Matrix Compiler2: 2.17 KB object code size  0.7/0.6/[0.6]


